#\#CIF_2.0

##########################################################################
#               Crystallographic Information Format file
#               Produced by PyCifRW module
#
#  This is a CIF file.  CIF has been adopted by the International
#  Union of Crystallography as the standard for data archiving and
#  transmission.
#
#  For information on this file format, follow the CIF links at
#  http://www.iucr.org
##########################################################################

data_1-cif2cell

_cell_length_a                          7.0144
_cell_length_b                          9.4984
_cell_length_c                          15.872399999999999
_cell_angle_alpha                       90.0
_cell_angle_beta                        90.0
_cell_angle_gamma                       90.0
_space_group_IT_number                  1
_space_group_name_H-M_alt               P1
_space_group_name_Hall                  'P 1'
loop_
  _atom_site_label
  _atom_site_type_symbol
  _atom_site_symmetry_multiplicity
  _atom_site_fract_x
  _atom_site_fract_y
  _atom_site_fract_z
  _atom_site_occupancy
         Br1       Br        1         0.3750000000000000  0.3750000000000000  0.3244500000000000 1.0      
         Br2       Br        1         0.8750000000000000  0.8750000000000000  0.3244500000000000 1.0      
         Br3       Br        1         0.8750000000000000  0.3750000000000000  0.3244500000000000 1.0      
         Br4       Br        1         0.3750000000000000  0.8750000000000000  0.8244500000000001 1.0      
         Br5       Br        1         0.3750000000000000  0.3750000000000000  0.8244500000000001 1.0      
         Br6       Br        1         0.8750000000000000  0.8750000000000000  0.8244500000000001 1.0      
         Br7       Br        1         0.8750000000000000  0.3750000000000000  0.8244500000000001 1.0      
         Br8       Br        1         0.3750000000000000  0.8750000000000000  0.3244500000000000 1.0      
         Br9       Br        1         0.1250000000000000  0.1250000000000000  0.0744500000000000 1.0      
         Br10      Br        1         0.6250000000000000  0.6250000000000000  0.0744500000000000 1.0      
         Br11      Br        1         0.6250000000000000  0.1250000000000000  0.0744500000000000 1.0      
         Br12      Br        1         0.1250000000000000  0.6250000000000000  0.5744500000000001 1.0      
         Br13      Br        1         0.1250000000000000  0.1250000000000000  0.5744500000000001 1.0      
         Br14      Br        1         0.6250000000000000  0.6250000000000000  0.5744500000000001 1.0      
         Br15      Br        1         0.6250000000000000  0.1250000000000000  0.5744500000000001 1.0      
         Br16      Br        1         0.1250000000000000  0.6250000000000000  0.0744500000000000 1.0      
         Cr17      Cr        1         0.1250000000000000  0.3750000000000000  0.4374500000000000 1.0      
         Cr18      Cr        1         0.6250000000000000  0.8750000000000000  0.4374500000000000 1.0      
         Cr19      Cr        1         0.6250000000000000  0.3750000000000000  0.4374500000000000 1.0      
         Cr20      Cr        1         0.1250000000000000  0.8750000000000000  0.9374500000000000 1.0      
         Cr21      Cr        1         0.1250000000000000  0.3750000000000000  0.9374500000000000 1.0      
         Cr22      Cr        1         0.6250000000000000  0.8750000000000000  0.9374500000000000 1.0      
         Cr23      Cr        1         0.6250000000000000  0.3750000000000000  0.9374500000000000 1.0      
         Cr24      Cr        1         0.1250000000000000  0.8750000000000000  0.4374500000000000 1.0      
         Cr25      Cr        1         0.3750000000000000  0.1250000000000000  0.1874500000000000 1.0      
         Cr26      Cr        1         0.8750000000000000  0.6250000000000000  0.1874500000000000 1.0      
         Cr27      Cr        1         0.8750000000000000  0.1250000000000000  0.1874500000000000 1.0      
         Cr28      Cr        1         0.3750000000000000  0.6250000000000000  0.6874500000000000 1.0      
         Cr29      Cr        1         0.3750000000000000  0.1250000000000000  0.6874500000000000 1.0      
         Cr30      Cr        1         0.8750000000000000  0.6250000000000000  0.6874500000000000 1.0      
         Cr31      Cr        1         0.8750000000000000  0.1250000000000000  0.6874500000000000 1.0      
         Cr32      Cr        1         0.3750000000000000  0.6250000000000000  0.1874500000000000 1.0      
         S33       S         1         0.1250000000000000  0.1250000000000000  0.2882000000000000 1.0      
         S34       S         1         0.6250000000000000  0.6250000000000000  0.2882000000000000 1.0      
         S35       S         1         0.6250000000000000  0.1250000000000000  0.2882000000000000 1.0      
         S36       S         1         0.1250000000000000  0.6250000000000000  0.7882000000000001 1.0      
         S37       S         1         0.1250000000000000  0.1250000000000000  0.7882000000000001 1.0      
         S38       S         1         0.6250000000000000  0.6250000000000000  0.7882000000000001 1.0      
         S39       S         1         0.6250000000000000  0.1250000000000000  0.7882000000000001 1.0      
         S40       S         1         0.1250000000000000  0.6250000000000000  0.2882000000000000 1.0      
         S41       S         1         0.3750000000000000  0.3750000000000000  0.2118000000000000 1.0      
         S42       S         1         0.8750000000000000  0.8750000000000000  0.2118000000000000 1.0      
         S43       S         1         0.8750000000000000  0.3750000000000000  0.2118000000000000 1.0      
         S44       S         1         0.3750000000000000  0.8750000000000000  0.7118000000000000 1.0      
         S45       S         1         0.3750000000000000  0.3750000000000000  0.7118000000000000 1.0      
         S46       S         1         0.8750000000000000  0.8750000000000000  0.7118000000000000 1.0      
         S47       S         1         0.8750000000000000  0.3750000000000000  0.7118000000000000 1.0      
         S48       S         1         0.3750000000000000  0.8750000000000000  0.2118000000000000 1.0      
         S49       S         1         0.1250000000000000  0.1250000000000000  0.4618000000000000 1.0      
         S50       S         1         0.6250000000000000  0.6250000000000000  0.4618000000000000 1.0      
         S51       S         1         0.6250000000000000  0.1250000000000000  0.4618000000000000 1.0      
         S52       S         1         0.1250000000000000  0.6250000000000000  0.9618000000000001 1.0      
         S53       S         1         0.1250000000000000  0.1250000000000000  0.9618000000000001 1.0      
         S54       S         1         0.6250000000000000  0.6250000000000000  0.9618000000000001 1.0      
         S55       S         1         0.6250000000000000  0.1250000000000000  0.9618000000000001 1.0      
         S56       S         1         0.1250000000000000  0.6250000000000000  0.4618000000000000 1.0